/*--------------------------------*- C++ -*----------------------------------*\
  =========                 |
| \\      /  F ield         | OpenFOAM: The Open Source CFD Toolbox           |
|  \\    /   O peration     | Version:  7.0                                   |
|   \\  /    A nd           | Website:  https://openfoam.org                  |
|    \\/     M anipulation  |                                                 |
\*---------------------------------------------------------------------------*/
FoamFile
{
    version     2.0;
    format      ascii;
    class       dictionary;
    object      blockMeshDict;
}
// * * * * * * * * * * * * * * * * * * * * * * * * * * * * * * * * * * * * * //

convertToMeters 0.1; //mm -> cm

vertices
(
	( 0   0  1) // V0
	( 0 1.5  1) // V1
	( 0 2.5  1) // V2
	( 0 4    1) // V3
	(10 4    1) // V4
	(10 2.5  1) // V5
	(13 2.5  1) // V6
	(13 4    1) // V7
	(23 4    1) // V8
	(23 2.5  1) // V9
	(23 1.5  1) // V10
	(23 0    1) // V11
	(13 0    1) // V12
	(13 1.5  1) // V13
	(10 1.5  1) // V14
	(10 0    1) // V15

	( 0   0  0) // V16
	( 0 1.5  0) // V17
	( 0 2.5  0) // V18
	( 0 4    0) // V19
	(10 4    0) // V20
	(10 2.5  0) // V21
	(13 2.5  0) // V22
	(13 4    0) // V23
	(23 4    0) // V24
	(23 2.5  0) // V25
	(23 1.5  0) // V26
	(23 0    0) // V27
	(13 0    0) // V28
	(13 1.5  0) // V29
	(10 1.5  0) // V30
	(10 0    0) // V31
);

blocks
(				  // (y x z)
	hex (0 1 14 15 16 17 30 31) (30 200 1) simpleGrading (1 1 1) // B0
	hex (1 2 5 14 17 18 21 30) (20 200 1) simpleGrading (1 1 1) // B1
	hex (2 3 4 5 18 19 20 21) (30 200 1) simpleGrading (1 1 1) // B2
	hex (14 5 6 13 30 21 22 29) (20 60 1) simpleGrading (1 1 1) // B3
	hex (12 13 10 11 28 29 26 27) (30 200 1) simpleGrading (1 1 1) // B4
	hex (13 6 9 10 29 22 25 26) (20 200 1) simpleGrading (1 1 1) // B5
	hex (6 7 8 9 22 23 24 25) (30 200 1) simpleGrading (1 1 1) // B6
);

edges
(
);

boundary
(
	inlet
	{
		type patch;
		faces
		(
			(1 17 16 0)
			(2 18 17 1)
			(3 19 18 2)
		);
	}

	outlet
	{
		type patch;
		faces
		(
			(26 10 11 27)
			(25 9 10 26)
			(24 8 9 25)
		);
	}

	walls
	{
		type wall;
		faces
		(
			(3 4 20 19)
			(20 4 5 21)
			(5 6 22 21)
			(7 23 22 6)
			(7 8 24 23)
			(30 14 15 31)
			(13 29 28 12)
		);
	}

	bottom
	{
		type symmetryPlane;
		faces
		(
			(16 31 15 0)
			(30 29 13 14)
			(28 27 11 12)
		);
	}  

	frontAndBack
	{
		type empty;
		faces
		(
			(14 1 0 15)
			(17 30 31 16)
			(5 2 1 14)
			(18 21 30 17)
			(4 3 2 5)
			(19 20 21 18)
			(6 5 14 13)
			(21 22 29 30)
			(10 13 12 11)
			(29 26 27 28)
			(9 6 13 10)
			(22 25 26 29)
			(8 7 6 9)
			(23 24 25 22)
		);
	}   
);

mergePatchPairs
(
);

// ************************************************************************* //
